&parameters
    caseid = 'control'
    cem = .true.
    day0 = 100.625
    docloud = .false.
    docolumn = .false.
    docoriolis = .true.
    dodamping = .true.
    doequinox = .true.
    dofplane = .false.
    dolargescale = .false.
    dolongwave = .false.
    donudging_tq = .false.
    donudging_uv = .false.
    doprecip = .false.
    doradforcing = .false.
    doradlat = .true.
    dosamconditionals = .false.
    dosatupdnconditionals = .false.
    doseasons = .false.
    dosfcforcing = .false.
    dosgs = .false.
    dosgsthermo = .false.
    doshortwave = .false.
    dosurface = .true.
    doupperbound = .false.
    dowally = .true.
    dt = 120
    dx = 160000
    dy = 160000
    initial_condition_netcdf = 'CASE/ic.nc'
    latitude0 = 0.72
    longitude0 = 0
    nprint = 240
    nrad = 30
    nrestart = 0
    nsave2d = 30
    nsave2dend = 99960480
    nsave2dstart = 0
    nsave3d = 3000
    nsave3dend = 99960480
    nsave3dstart = 0
    nstat = 30
    nstatfrq = 1
    nstop = 7200
    ocean = .true.
    ocean_type = 3
    perturb_type = 23
    save2dbin = .true.
    save3dbin = .true.
/

&python
    do_debias_lhf = .true.
    dopython = .true.
    function_name = 'call_neural_network'
    module_name = 'uwnet.sam_interface'
    npython = 1
    nsavepython = 30
    usepython = .true.
/

&sgs_tke
    dosmagor = .true.
/

&uwoptions
/
